*Heading
** Mesh Convergence Study — mesh size = 0.5 mm
** Mesh: 20x80 CPS4R elements (1600 total)
** Nodes: 1701
**
*Preprint, echo=NO, model=NO, history=NO, contact=NO
**
*Part, name=SPECIMEN
*Node
1, 0.000000, 0.000000
2, 0.500000, 0.000000
3, 1.000000, 0.000000
4, 1.500000, 0.000000
5, 2.000000, 0.000000
6, 2.500000, 0.000000
7, 3.000000, 0.000000
8, 3.500000, 0.000000
9, 4.000000, 0.000000
10, 4.500000, 0.000000
11, 5.000000, 0.000000
12, 5.500000, 0.000000
13, 6.000000, 0.000000
14, 6.500000, 0.000000
15, 7.000000, 0.000000
16, 7.500000, 0.000000
17, 8.000000, 0.000000
18, 8.500000, 0.000000
19, 9.000000, 0.000000
20, 9.500000, 0.000000
** ... 1681 like lines cut
**
*Element, type=CPS4R
1, 1, 2, 23, 22
2, 2, 3, 24, 23
3, 3, 4, 25, 24
4, 4, 5, 26, 25
5, 5, 6, 27, 26
6, 6, 7, 28, 27
7, 7, 8, 29, 28
8, 8, 9, 30, 29
9, 9, 10, 31, 30
10, 10, 11, 32, 31
11, 11, 12, 33, 32
12, 12, 13, 34, 33
13, 13, 14, 35, 34
14, 14, 15, 36, 35
15, 15, 16, 37, 36
16, 16, 17, 38, 37
17, 17, 18, 39, 38
18, 18, 19, 40, 39
19, 19, 20, 41, 40
20, 20, 21, 42, 41
** ... 1580 like lines cut
**
*Elset, elset=ALL_ELEMENTS, generate
1, 1600, 1
**
*Nset, nset=SYM_X
1, 22, 43, 64, 85, 106, 127, 148, 169, 190, 211, 232, 253, 274, 295, 316
337, 358, 379, 400, 421, 442, 463, 484, 505, 526, 547, 568, 589, 610, 631, 652
673, 694, 715, 736, 757, 778, 799, 820, 841, 862, 883, 904, 925, 946, 967, 988
1009, 1030, 1051, 1072, 1093, 1114, 1135, 1156, 1177, 1198, 1219, 1240, 1261, 1282, 1303, 1324
1345, 1366, 1387, 1408, 1429, 1450, 1471, 1492, 1513, 1534, 1555, 1576, 1597, 1618, 1639, 1660
1681
*Nset, nset=SYM_Y
1, 2, 3, 4, 5, 6, 7, 8, 9, 10, 11, 12, 13, 14, 15, 16
17, 18, 19, 20, 21
*Nset, nset=LOAD_NODES
1681, 1682, 1683, 1684, 1685, 1686, 1687, 1688, 1689, 1690, 1691, 1692, 1693, 1694, 1695, 1696
1697, 1698, 1699, 1700, 1701
*Nset, nset=CORNER
1681
**
*Orientation, name=ORI_ROLL, system=RECTANGULAR
1.0, 0.0, 0.0, 0.0, 1.0, 0.0
1, 0.0
**
*Solid Section, elset=ALL_ELEMENTS, material=SGCC_STEEL, orientation=ORI_ROLL
1.5,
*End Part
**
*Assembly, name=Assembly
*Instance, name=SPECIMEN-1, part=SPECIMEN
*End Instance
**
*Nset, nset=SYM_X, instance=SPECIMEN-1
1, 22, 43, 64, 85, 106, 127, 148, 169, 190, 211, 232, 253, 274, 295, 316
337, 358, 379, 400, 421, 442, 463, 484, 505, 526, 547, 568, 589, 610, 631, 652
673, 694, 715, 736, 757, 778, 799, 820, 841, 862, 883, 904, 925, 946, 967, 988
1009, 1030, 1051, 1072, 1093, 1114, 1135, 1156, 1177, 1198, 1219, 1240, 1261, 1282, 1303, 1324
1345, 1366, 1387, 1408, 1429, 1450, 1471, 1492, 1513, 1534, 1555, 1576, 1597, 1618, 1639, 1660
1681
*Nset, nset=SYM_Y, instance=SPECIMEN-1
1, 2, 3, 4, 5, 6, 7, 8, 9, 10, 11, 12, 13, 14, 15, 16
17, 18, 19, 20, 21
*Nset, nset=LOAD_NODES, instance=SPECIMEN-1
1681, 1682, 1683, 1684, 1685, 1686, 1687, 1688, 1689, 1690, 1691, 1692, 1693, 1694, 1695, 1696
1697, 1698, 1699, 1700, 1701
*Nset, nset=CORNER, instance=SPECIMEN-1
1681
*End Assembly
**
*Material, name=SGCC_STEEL
*Density
7.85e-09,
*Elastic
200000.0, 0.3
**
*Plastic
312.3500, 0.000000
327.0277, 0.010204
339.8083, 0.020408
352.0307, 0.030612
363.7641, 0.040816
375.0331, 0.051020
385.8568, 0.061224
396.2530, 0.071429
406.2384, 0.081633
415.8294, 0.091837
425.0415, 0.102041
433.8896, 0.112245
442.3882, 0.122449
450.5511, 0.132653
458.3915, 0.142857
465.9222, 0.153061
473.1554, 0.163265
480.1028, 0.173469
486.7758, 0.183673
493.1852, 0.193878
** ... 30 like lines cut
**
*Potential
1.0, 1.0119, 0.9347, 1.0041, 1.0, 1.0
**
*Step, name=Tensile, nlgeom=YES, inc=1000
*Static
0.01, 1.0, 1e-08, 0.02
**
*Boundary
SYM_X, 1, 1, 0.0
*Boundary
SYM_Y, 2, 2, 0.0
*Boundary
LOAD_NODES, 2, 2, 25.0
**
*Output, field, frequency=1
*Node Output
U, RF
*Element Output, directions=YES
S, E, PE, PEEQ
**
*Output, history, frequency=1
*Node Output, nset=CORNER
U2, RF2
**
*End Step
