*Heading
** Mesh Convergence Study — mesh size = 2.0 mm
** Mesh: 5x20 CPS4R elements (100 total)
** Nodes: 126
**
*Preprint, echo=NO, model=NO, history=NO, contact=NO
**
*Part, name=SPECIMEN
*Node
1, 0.000000, 0.000000
2, 2.000000, 0.000000
3, 4.000000, 0.000000
4, 6.000000, 0.000000
5, 8.000000, 0.000000
6, 10.000000, 0.000000
7, 0.000000, 2.000000
8, 2.000000, 2.000000
9, 4.000000, 2.000000
10, 6.000000, 2.000000
11, 8.000000, 2.000000
12, 10.000000, 2.000000
13, 0.000000, 4.000000
14, 2.000000, 4.000000
15, 4.000000, 4.000000
16, 6.000000, 4.000000
17, 8.000000, 4.000000
18, 10.000000, 4.000000
19, 0.000000, 6.000000
20, 2.000000, 6.000000
** ... 106 like lines cut
**
*Element, type=CPS4R
1, 1, 2, 8, 7
2, 2, 3, 9, 8
3, 3, 4, 10, 9
4, 4, 5, 11, 10
5, 5, 6, 12, 11
6, 7, 8, 14, 13
7, 8, 9, 15, 14
8, 9, 10, 16, 15
9, 10, 11, 17, 16
10, 11, 12, 18, 17
11, 13, 14, 20, 19
12, 14, 15, 21, 20
13, 15, 16, 22, 21
14, 16, 17, 23, 22
15, 17, 18, 24, 23
16, 19, 20, 26, 25
17, 20, 21, 27, 26
18, 21, 22, 28, 27
19, 22, 23, 29, 28
20, 23, 24, 30, 29
** ... 80 like lines cut
**
*Elset, elset=ALL_ELEMENTS, generate
1, 100, 1
**
*Nset, nset=SYM_X
1, 7, 13, 19, 25, 31, 37, 43, 49, 55, 61, 67, 73, 79, 85, 91
97, 103, 109, 115, 121
*Nset, nset=SYM_Y
1, 2, 3, 4, 5, 6
*Nset, nset=LOAD_NODES
121, 122, 123, 124, 125, 126
*Nset, nset=CORNER
121
**
*Orientation, name=ORI_ROLL, system=RECTANGULAR
1.0, 0.0, 0.0, 0.0, 1.0, 0.0
1, 0.0
**
*Solid Section, elset=ALL_ELEMENTS, material=SGCC_STEEL, orientation=ORI_ROLL
1.5,
*End Part
**
*Assembly, name=Assembly
*Instance, name=SPECIMEN-1, part=SPECIMEN
*End Instance
**
*Nset, nset=SYM_X, instance=SPECIMEN-1
1, 7, 13, 19, 25, 31, 37, 43, 49, 55, 61, 67, 73, 79, 85, 91
97, 103, 109, 115, 121
*Nset, nset=SYM_Y, instance=SPECIMEN-1
1, 2, 3, 4, 5, 6
*Nset, nset=LOAD_NODES, instance=SPECIMEN-1
121, 122, 123, 124, 125, 126
*Nset, nset=CORNER, instance=SPECIMEN-1
121
*End Assembly
**
*Material, name=SGCC_STEEL
*Density
7.85e-09,
*Elastic
200000.0, 0.3
**
*Plastic
312.3500, 0.000000
327.0277, 0.010204
339.8083, 0.020408
352.0307, 0.030612
363.7641, 0.040816
375.0331, 0.051020
385.8568, 0.061224
396.2530, 0.071429
406.2384, 0.081633
415.8294, 0.091837
425.0415, 0.102041
433.8896, 0.112245
442.3882, 0.122449
450.5511, 0.132653
458.3915, 0.142857
465.9222, 0.153061
473.1554, 0.163265
480.1028, 0.173469
486.7758, 0.183673
493.1852, 0.193878
** ... 30 like lines cut
**
*Potential
1.0, 1.0119, 0.9347, 1.0041, 1.0, 1.0
**
*Step, name=Tensile, nlgeom=YES, inc=1000
*Static
0.01, 1.0, 1e-08, 0.02
**
*Boundary
SYM_X, 1, 1, 0.0
*Boundary
SYM_Y, 2, 2, 0.0
*Boundary
LOAD_NODES, 2, 2, 25.0
**
*Output, field, frequency=1
*Node Output
U, RF
*Element Output, directions=YES
S, E, PE, PEEQ
**
*Output, history, frequency=1
*Node Output, nset=CORNER
U2, RF2
**
*End Step
