*Heading
** Mesh Convergence Study — mesh size = 1.0 mm
** Mesh: 10x40 CPS4R elements (400 total)
** Nodes: 451
**
*Preprint, echo=NO, model=NO, history=NO, contact=NO
**
*Part, name=SPECIMEN
*Node
1, 0.000000, 0.000000
2, 1.000000, 0.000000
3, 2.000000, 0.000000
4, 3.000000, 0.000000
5, 4.000000, 0.000000
6, 5.000000, 0.000000
7, 6.000000, 0.000000
8, 7.000000, 0.000000
9, 8.000000, 0.000000
10, 9.000000, 0.000000
11, 10.000000, 0.000000
12, 0.000000, 1.000000
13, 1.000000, 1.000000
14, 2.000000, 1.000000
15, 3.000000, 1.000000
16, 4.000000, 1.000000
17, 5.000000, 1.000000
18, 6.000000, 1.000000
19, 7.000000, 1.000000
20, 8.000000, 1.000000
** ... 431 like lines cut
**
*Element, type=CPS4R
1, 1, 2, 13, 12
2, 2, 3, 14, 13
3, 3, 4, 15, 14
4, 4, 5, 16, 15
5, 5, 6, 17, 16
6, 6, 7, 18, 17
7, 7, 8, 19, 18
8, 8, 9, 20, 19
9, 9, 10, 21, 20
10, 10, 11, 22, 21
11, 12, 13, 24, 23
12, 13, 14, 25, 24
13, 14, 15, 26, 25
14, 15, 16, 27, 26
15, 16, 17, 28, 27
16, 17, 18, 29, 28
17, 18, 19, 30, 29
18, 19, 20, 31, 30
19, 20, 21, 32, 31
20, 21, 22, 33, 32
** ... 380 like lines cut
**
*Elset, elset=ALL_ELEMENTS, generate
1, 400, 1
**
*Nset, nset=SYM_X
1, 12, 23, 34, 45, 56, 67, 78, 89, 100, 111, 122, 133, 144, 155, 166
177, 188, 199, 210, 221, 232, 243, 254, 265, 276, 287, 298, 309, 320, 331, 342
353, 364, 375, 386, 397, 408, 419, 430, 441
*Nset, nset=SYM_Y
1, 2, 3, 4, 5, 6, 7, 8, 9, 10, 11
*Nset, nset=LOAD_NODES
441, 442, 443, 444, 445, 446, 447, 448, 449, 450, 451
*Nset, nset=CORNER
441
**
*Orientation, name=ORI_ROLL, system=RECTANGULAR
1.0, 0.0, 0.0, 0.0, 1.0, 0.0
1, 0.0
**
*Solid Section, elset=ALL_ELEMENTS, material=SGCC_STEEL, orientation=ORI_ROLL
1.5,
*End Part
**
*Assembly, name=Assembly
*Instance, name=SPECIMEN-1, part=SPECIMEN
*End Instance
**
*Nset, nset=SYM_X, instance=SPECIMEN-1
1, 12, 23, 34, 45, 56, 67, 78, 89, 100, 111, 122, 133, 144, 155, 166
177, 188, 199, 210, 221, 232, 243, 254, 265, 276, 287, 298, 309, 320, 331, 342
353, 364, 375, 386, 397, 408, 419, 430, 441
*Nset, nset=SYM_Y, instance=SPECIMEN-1
1, 2, 3, 4, 5, 6, 7, 8, 9, 10, 11
*Nset, nset=LOAD_NODES, instance=SPECIMEN-1
441, 442, 443, 444, 445, 446, 447, 448, 449, 450, 451
*Nset, nset=CORNER, instance=SPECIMEN-1
441
*End Assembly
**
*Material, name=SGCC_STEEL
*Density
7.85e-09,
*Elastic
200000.0, 0.3
**
*Plastic
312.3500, 0.000000
327.0277, 0.010204
339.8083, 0.020408
352.0307, 0.030612
363.7641, 0.040816
375.0331, 0.051020
385.8568, 0.061224
396.2530, 0.071429
406.2384, 0.081633
415.8294, 0.091837
425.0415, 0.102041
433.8896, 0.112245
442.3882, 0.122449
450.5511, 0.132653
458.3915, 0.142857
465.9222, 0.153061
473.1554, 0.163265
480.1028, 0.173469
486.7758, 0.183673
493.1852, 0.193878
** ... 30 like lines cut
**
*Potential
1.0, 1.0119, 0.9347, 1.0041, 1.0, 1.0
**
*Step, name=Tensile, nlgeom=YES, inc=1000
*Static
0.01, 1.0, 1e-08, 0.02
**
*Boundary
SYM_X, 1, 1, 0.0
*Boundary
SYM_Y, 2, 2, 0.0
*Boundary
LOAD_NODES, 2, 2, 25.0
**
*Output, field, frequency=1
*Node Output
U, RF
*Element Output, directions=YES
S, E, PE, PEEQ
**
*Output, history, frequency=1
*Node Output, nset=CORNER
U2, RF2
**
*End Step
